# Packages
 &PACKAGES
 useMNC=.TRUE.,
 useFLT=.FALSE.,
 useDiagnostics=.FALSE.
 &
